<routes>
    <vType id="car" accel="0.8" decel="4.5" sigma="0.5" length="5" maxSpeed="120"/>

    <route id="route" color="1,1,0" edges="263502998#0 263502998#1 -1042695859#0 -317080769#4 -317080769#3 -317080769#1 24603088#0 24603088#1 24603088#2 24603088#3 24603088#4 473989905#1 383116105"/>
    
    <flow id="flow" type="car" route="route" begin="0" period="5" number="5" arrivalPos="4608050520" />

</routes>
