<?xml version="1.0" encoding="UTF-8"?>

<configuration xmlns:xsi="http://www.w3.org/2001/XMLSchema-instance" xsi:noNamespaceSchemaLocation="http://sumo.dlr.de/xsd/netconvertConfiguration.xsd">

	<input>
		<net-file value="politecnico.net.xml"/>
		<route-files value="car.route.xml"/>
	</input>

	<time>
		<begin value="0"/>
		<end value="100"/>
	</time>

</configuration>
