<?xml version="1.0" encoding="UTF-8"?>

<!-- generated on 2022-07-04 12:43:52 by Eclipse SUMO netedit Version 1.13.0
<configuration xmlns:xsi="http://www.w3.org/2001/XMLSchema-instance" xsi:noNamespaceSchemaLocation="http://sumo.dlr.de/xsd/netconvertConfiguration.xsd">

    <input>
        <sumo-net-file value="/home/leonardo/Projeto%20Final%20EELT7017/politecnico.net.xml"/>
    </input>

    <output>
        <output-file value="/home/leonardo/Projeto%20Final%20EELT7017/politecnico.net.xml"/>
    </output>

    <processing>
        <geometry.min-radius.fix.railways value="false"/>
        <geometry.max-grade.fix value="false"/>
        <offset.disable-normalization value="true"/>
        <lefthand value="false"/>
    </processing>

    <junctions>
        <no-turnarounds value="true"/>
        <junctions.corner-detail value="5"/>
        <junctions.limit-turn-speed value="5.5"/>
        <rectangular-lane-cut value="false"/>
    </junctions>

    <pedestrian>
        <walkingareas value="false"/>
    </pedestrian>

    <report>
        <aggregate-warnings value="5"/>
    </report>

</configuration>
-->

<net version="1.9" junctionCornerDetail="5" limitTurnSpeed="5.50" xmlns:xsi="http://www.w3.org/2001/XMLSchema-instance" xsi:noNamespaceSchemaLocation="http://sumo.dlr.de/xsd/net_file.xsd">

    <location netOffset="-677300.79,2816693.63" convBoundary="0.00,0.00,538.71,712.23" origBoundary="-49.236647,-25.456713,-49.229928,-25.449857" projParameter="+proj=utm +zone=22 +ellps=WGS84 +datum=WGS84 +units=m +no_defs"/>

    <type id="highway.bridleway" priority="1" numLanes="1" speed="2.78" allow="pedestrian" oneway="1" width="2.00"/>
    <type id="highway.bus_guideway" priority="1" numLanes="1" speed="27.78" allow="bus" oneway="1"/>
    <type id="highway.cycleway" priority="1" numLanes="1" speed="8.33" allow="bicycle" oneway="0" width="1.00"/>
    <type id="highway.footway" priority="1" numLanes="1" speed="2.78" allow="pedestrian" oneway="1" width="2.00"/>
    <type id="highway.ford" priority="1" numLanes="1" speed="2.78" allow="army" oneway="0"/>
    <type id="highway.living_street" priority="2" numLanes="1" speed="2.78" disallow="tram rail_urban rail rail_electric rail_fast ship" oneway="0"/>
    <type id="highway.motorway" priority="14" numLanes="2" speed="39.44" allow="private emergency authority army vip passenger hov taxi bus coach delivery truck trailer motorcycle evehicle custom1 custom2" oneway="1"/>
    <type id="highway.motorway_link" priority="9" numLanes="1" speed="22.22" allow="private emergency authority army vip passenger hov taxi bus coach delivery truck trailer motorcycle evehicle custom1 custom2" oneway="1"/>
    <type id="highway.path" priority="1" numLanes="1" speed="2.78" allow="pedestrian bicycle" oneway="0" width="2.00"/>
    <type id="highway.pedestrian" priority="1" numLanes="1" speed="2.78" allow="pedestrian" oneway="1" width="2.00"/>
    <type id="highway.primary" priority="12" numLanes="2" speed="27.78" disallow="tram rail_urban rail rail_electric rail_fast ship" oneway="0"/>
    <type id="highway.primary_link" priority="7" numLanes="1" speed="22.22" disallow="tram rail_urban rail rail_electric rail_fast ship" oneway="0"/>
    <type id="highway.raceway" priority="15" numLanes="2" speed="83.33" allow="vip" oneway="0"/>
    <type id="highway.residential" priority="3" numLanes="1" speed="13.89" disallow="tram rail_urban rail rail_electric rail_fast ship" oneway="0"/>
    <type id="highway.secondary" priority="11" numLanes="1" speed="27.78" disallow="tram rail_urban rail rail_electric rail_fast ship" oneway="0"/>
    <type id="highway.secondary_link" priority="6" numLanes="1" speed="22.22" disallow="tram rail_urban rail rail_electric rail_fast ship" oneway="0"/>
    <type id="highway.service" priority="1" numLanes="1" speed="5.56" allow="pedestrian delivery bicycle" oneway="0"/>
    <type id="highway.stairs" priority="1" numLanes="1" speed="1.39" allow="pedestrian" oneway="1" width="2.00"/>
    <type id="highway.step" priority="1" numLanes="1" speed="1.39" allow="pedestrian" oneway="1" width="2.00"/>
    <type id="highway.steps" priority="1" numLanes="1" speed="1.39" allow="pedestrian" oneway="1" width="2.00"/>
    <type id="highway.tertiary" priority="10" numLanes="1" speed="22.22" disallow="tram rail_urban rail rail_electric rail_fast ship" oneway="0"/>
    <type id="highway.tertiary_link" priority="5" numLanes="1" speed="22.22" disallow="tram rail_urban rail rail_electric rail_fast ship" oneway="0"/>
    <type id="highway.track" priority="1" numLanes="1" speed="5.56" allow="pedestrian motorcycle moped bicycle" oneway="0"/>
    <type id="highway.trunk" priority="13" numLanes="2" speed="27.78" disallow="pedestrian bicycle tram rail_urban rail rail_electric rail_fast ship" oneway="0"/>
    <type id="highway.trunk_link" priority="8" numLanes="1" speed="22.22" disallow="pedestrian bicycle tram rail_urban rail rail_electric rail_fast ship" oneway="0"/>
    <type id="highway.unclassified" priority="4" numLanes="1" speed="13.89" disallow="tram rail_urban rail rail_electric rail_fast ship" oneway="0"/>
    <type id="highway.unsurfaced" priority="1" numLanes="1" speed="8.33" disallow="tram rail_urban rail rail_electric rail_fast ship" oneway="0"/>
    <type id="railway.highspeed" priority="21" numLanes="1" speed="69.44" allow="rail_fast" oneway="1"/>
    <type id="railway.light_rail" priority="19" numLanes="1" speed="27.78" allow="rail_urban" oneway="1"/>
    <type id="railway.preserved" priority="16" numLanes="1" speed="27.78" allow="rail" oneway="1"/>
    <type id="railway.rail" priority="20" numLanes="1" speed="44.44" allow="rail" oneway="1"/>
    <type id="railway.subway" priority="18" numLanes="1" speed="27.78" allow="rail_urban" oneway="1"/>
    <type id="railway.tram" priority="17" numLanes="1" speed="13.89" allow="tram" oneway="1"/>

    <edge id=":1392806296_0" function="internal">
        <lane id=":1392806296_0_0" index="0" disallow="tram rail_urban rail rail_electric rail_fast ship" speed="3.65" length="4.67" shape="497.72,400.74 498.59,401.88 498.71,402.77 498.08,403.39 496.68,403.76"/>
    </edge>
    <edge id=":1392806689_0" function="internal">
        <lane id=":1392806689_0_0" index="0" disallow="tram rail_urban rail rail_electric rail_fast ship" speed="3.65" length="4.67" shape="409.46,296.11 409.72,294.69 410.30,294.01 411.20,294.06 412.40,294.85"/>
    </edge>
    <edge id=":1750306604_0" function="internal">
        <lane id=":1750306604_0_0" index="0" allow="pedestrian delivery bicycle" speed="5.56" length="7.42" shape="269.49,447.31 268.39,445.45 267.27,444.41 266.10,443.39 264.85,441.60"/>
    </edge>
    <edge id=":1750306604_1" function="internal">
        <lane id=":1750306604_1_0" index="0" allow="pedestrian delivery bicycle" speed="5.56" length="8.54" shape="269.49,447.31 268.75,444.81 268.95,442.87 270.07,441.49 272.12,440.66"/>
    </edge>
    <edge id=":1750306604_2" function="internal">
        <lane id=":1750306604_2_0" index="0" allow="pedestrian delivery bicycle" speed="5.44" length="4.73" shape="267.67,440.09 268.23,440.65 269.15,440.93 270.45,440.93 272.12,440.66"/>
    </edge>
    <edge id=":1750306604_3" function="internal">
        <lane id=":1750306604_3_0" index="0" allow="pedestrian delivery bicycle" speed="3.65" length="4.67" shape="267.67,440.09 267.53,441.53 267.02,442.26 266.12,442.28 264.85,441.60"/>
    </edge>
    <edge id=":1750306617_0" function="internal">
        <lane id=":1750306617_0_0" index="0" allow="pedestrian delivery bicycle" speed="5.56" length="4.33" shape="299.45,480.58 299.90,481.78 300.16,482.63 300.24,483.51 300.19,484.79"/>
    </edge>
    <edge id=":1750306624_0" function="internal">
        <lane id=":1750306624_0_0" index="0" allow="pedestrian delivery bicycle" speed="3.65" length="4.67" shape="76.40,712.89 74.98,712.61 74.30,712.03 74.36,711.13 75.16,709.93"/>
    </edge>
    <edge id=":1750306633_0" function="internal">
        <lane id=":1750306633_0_0" index="0" allow="pedestrian delivery bicycle" speed="3.65" length="4.67" shape="29.00,598.13 27.58,597.84 26.91,597.26 26.98,596.36 27.78,595.17"/>
    </edge>
    <edge id=":1750306636_0" function="internal">
        <lane id=":1750306636_0_0" index="0" allow="pedestrian delivery bicycle" speed="5.07" length="5.65" shape="378.57,667.40 379.08,668.81 378.94,670.00 378.13,670.99 376.66,671.78"/>
    </edge>
    <edge id=":1750306636_1" function="internal">
        <lane id=":1750306636_1_0" index="0" allow="pedestrian delivery bicycle" speed="3.65" length="4.67" shape="375.53,668.78 376.94,669.11 377.59,669.72 377.50,670.61 376.66,671.78"/>
    </edge>
    <edge id=":1750306696_0" function="internal">
        <lane id=":1750306696_0_0" index="0" allow="pedestrian delivery bicycle" speed="5.56" length="7.29" shape="188.61,453.05 187.44,450.81 186.20,449.39 184.88,448.77 183.47,448.96"/>
    </edge>
    <edge id=":1750306696_1" function="internal">
        <lane id=":1750306696_1_0" index="0" allow="pedestrian delivery bicycle" speed="5.56" length="14.29" shape="188.61,453.05 187.59,449.24 188.04,446.05 189.96,443.48 193.35,441.53"/>
    </edge>
    <edge id=":1750306696_2" function="internal">
        <lane id=":1750306696_2_0" index="0" allow="pedestrian delivery bicycle" speed="3.65" length="4.67" shape="188.61,453.05 188.86,451.63 189.43,450.94 190.33,450.99 191.54,451.77"/>
    </edge>
    <edge id=":1750306696_3" function="internal">
        <lane id=":1750306696_3_0" index="0" allow="private pedestrian passenger taxi bus delivery motorcycle bicycle" speed="5.56" length="9.02" shape="194.53,444.50 192.39,445.73 191.18,447.35 190.90,449.37 191.54,451.77"/>
    </edge>
    <edge id=":1750306696_4" function="internal">
        <lane id=":1750306696_4_0" index="0" allow="pedestrian delivery bicycle" speed="5.56" length="11.92" shape="194.53,444.50 183.47,448.96"/>
    </edge>
    <edge id=":1750306696_5" function="internal">
        <lane id=":1750306696_5_0" index="0" allow="pedestrian delivery bicycle" speed="3.65" length="4.67" shape="194.53,444.50 193.12,444.20 192.46,443.60 192.53,442.71 193.35,441.53"/>
    </edge>
    <edge id=":1750306696_6" function="internal">
        <lane id=":1750306696_6_0" index="0" allow="pedestrian delivery bicycle" speed="5.56" length="11.97" shape="182.25,446.00 193.35,441.53"/>
    </edge>
    <edge id=":1750306696_7" function="internal">
        <lane id=":1750306696_7_0" index="0" allow="pedestrian delivery bicycle" speed="5.56" length="12.33" shape="182.25,446.00 185.01,445.46 187.48,446.24 189.65,448.35 191.54,451.77"/>
    </edge>
    <edge id=":1750306696_8" function="internal">
        <lane id=":1750306696_8_0" index="0" allow="pedestrian delivery bicycle" speed="3.65" length="4.67" shape="182.25,446.00 183.67,446.28 184.34,446.87 184.28,447.76 183.47,448.96"/>
    </edge>
    <edge id=":1750306704_0" function="internal">
        <lane id=":1750306704_0_0" index="0" allow="pedestrian delivery bicycle" speed="5.56" length="8.24" shape="345.97,593.15 347.98,594.55 349.36,595.59 350.42,596.87 351.45,599.03"/>
    </edge>
    <edge id=":2650860727_0" function="internal">
        <lane id=":2650860727_0_0" index="0" allow="pedestrian delivery bicycle" speed="5.56" length="8.69" shape="451.27,429.17 450.45,426.72 449.84,425.06 449.11,423.46 447.95,421.16"/>
    </edge>
    <edge id=":2650860727_1" function="internal">
        <lane id=":2650860727_1_0" index="0" allow="pedestrian delivery bicycle" speed="5.56" length="10.33" shape="451.27,429.17 450.76,426.37 451.29,424.11 452.84,422.39 455.43,421.20"/>
    </edge>
    <edge id=":2650860727_2" function="internal">
        <lane id=":2650860727_2_0" index="0" allow="pedestrian delivery bicycle" speed="3.65" length="4.67" shape="451.27,429.17 451.65,427.78 452.28,427.15 453.17,427.27 454.30,428.16"/>
    </edge>
    <edge id=":2650860727_3" function="internal">
        <lane id=":2650860727_3_0" index="0" allow="pedestrian delivery bicycle" speed="5.00" length="5.04" shape="456.34,424.27 455.07,424.85 454.32,425.69 454.06,426.79 454.30,428.16"/>
    </edge>
    <edge id=":2650860727_4" function="internal">
        <lane id=":2650860727_4_0" index="0" allow="pedestrian delivery bicycle" speed="5.56" length="9.83" shape="456.34,424.27 453.61,424.73 451.30,424.36 449.41,423.17 447.95,421.16"/>
    </edge>
    <edge id=":2650860727_5" function="internal">
        <lane id=":2650860727_5_0" index="0" allow="pedestrian delivery bicycle" speed="3.65" length="4.67" shape="456.34,424.27 454.96,423.85 454.35,423.19 454.51,422.31 455.43,421.20"/>
    </edge>
    <edge id=":2650860727_6" function="internal">
        <lane id=":2650860727_6_0" index="0" allow="pedestrian delivery bicycle" speed="5.54" length="5.35" shape="450.79,419.69 451.56,420.72 452.60,421.32 453.89,421.48 455.43,421.20"/>
    </edge>
    <edge id=":2650860727_7" function="internal">
        <lane id=":2650860727_7_0" index="0" allow="pedestrian delivery bicycle" speed="5.56" length="9.19" shape="450.79,419.69 452.02,422.12 452.79,423.82 453.44,425.57 454.30,428.16"/>
    </edge>
    <edge id=":2650860727_8" function="internal">
        <lane id=":2650860727_8_0" index="0" allow="pedestrian delivery bicycle" speed="3.65" length="4.67" shape="450.79,419.69 450.63,421.12 450.10,421.84 449.21,421.86 447.95,421.16"/>
    </edge>
    <edge id=":2650860769_0" function="internal">
        <lane id=":2650860769_0_0" index="0" allow="pedestrian delivery bicycle" speed="3.65" length="4.67" shape="487.84,516.28 487.01,517.46 486.20,517.84 485.41,517.42 484.64,516.20"/>
    </edge>
    <edge id=":2651925060_0" function="internal">
        <lane id=":2651925060_0_0" index="0" allow="pedestrian delivery bicycle" speed="4.77" length="5.25" shape="447.10,503.09 446.31,501.75 445.37,501.10 444.27,501.12 443.00,501.83"/>
    </edge>
    <edge id=":2651925060_1" function="internal">
        <lane id=":2651925060_1_0" index="0" allow="pedestrian delivery bicycle" speed="5.56" length="6.33" shape="447.10,503.09 444.48,497.33"/>
    </edge>
    <edge id=":2651925060_2" function="internal">
        <lane id=":2651925060_2_0" index="0" allow="pedestrian delivery bicycle" speed="3.65" length="4.67" shape="447.10,503.09 447.37,501.67 447.95,500.99 448.84,501.05 450.05,501.85"/>
    </edge>
    <edge id=":2651925060_3" function="internal">
        <lane id=":2651925060_3_0" index="0" allow="pedestrian delivery bicycle" speed="5.56" length="6.54" shape="447.34,495.90 450.05,501.85"/>
    </edge>
    <edge id=":2651925060_4" function="internal">
        <lane id=":2651925060_4_0" index="0" allow="pedestrian delivery bicycle" speed="5.56" length="7.70" shape="447.34,495.90 447.41,496.96 446.71,498.30 445.24,499.92 443.00,501.83"/>
    </edge>
    <edge id=":2651925060_5" function="internal">
        <lane id=":2651925060_5_0" index="0" allow="pedestrian delivery bicycle" speed="3.65" length="4.67" shape="447.34,495.90 447.16,497.33 446.62,498.05 445.73,498.05 444.48,497.33"/>
    </edge>
    <edge id=":267451799_0" function="internal">
        <lane id=":267451799_0_0" index="0" allow="pedestrian delivery bicycle" speed="3.65" length="4.67" shape="341.29,324.47 340.91,323.07 341.13,322.21 341.96,321.87 343.39,322.05"/>
    </edge>
    <edge id=":267451892_0" function="internal">
        <lane id=":267451892_0_0" index="0" allow="pedestrian delivery bicycle" speed="3.65" length="4.67" shape="0.66,529.00 -0.76,528.76 -1.46,528.20 -1.42,527.31 -0.66,526.08"/>
    </edge>
    <edge id=":3233030916_0" function="internal">
        <lane id=":3233030916_0_0" index="0" allow="pedestrian delivery bicycle" speed="3.65" length="4.67" shape="358.37,359.19 359.80,359.43 360.48,360.00 360.44,360.90 359.67,362.11"/>
    </edge>
    <edge id=":3772748306_0" function="internal">
        <lane id=":3772748306_0_0" index="0" allow="pedestrian delivery bicycle" speed="3.65" length="4.67" shape="470.43,550.57 470.16,551.99 469.57,552.66 468.68,552.60 467.48,551.80"/>
    </edge>
    <edge id=":3772748306_1" function="internal">
        <lane id=":3772748306_1_0" index="0" allow="pedestrian delivery bicycle" speed="4.70" length="5.99" shape="464.71,555.12 466.55,555.18 467.63,554.65 467.94,553.52 467.48,551.80"/>
    </edge>
    <edge id=":3797046606_0" function="internal">
        <lane id=":3797046606_0_0" index="0" allow="pedestrian delivery bicycle" speed="5.05" length="5.02" shape="343.45,655.12 342.75,653.95 341.83,653.28 340.71,653.11 339.37,653.45"/>
    </edge>
    <edge id=":3797046606_1" function="internal">
        <lane id=":3797046606_1_0" index="0" allow="pedestrian delivery bicycle" speed="5.56" length="9.40" shape="343.45,655.12 339.83,646.45"/>
    </edge>
    <edge id=":3797046606_2" function="internal">
        <lane id=":3797046606_2_0" index="0" allow="pedestrian delivery bicycle" speed="3.65" length="4.67" shape="343.45,655.12 343.72,653.71 344.31,653.03 345.20,653.09 346.40,653.89"/>
    </edge>
    <edge id=":3797046606_3" function="internal">
        <lane id=":3797046606_3_0" index="0" allow="pedestrian delivery bicycle" speed="5.56" length="9.40" shape="342.78,645.21 346.40,653.89"/>
    </edge>
    <edge id=":3797046606_4" function="internal">
        <lane id=":3797046606_4_0" index="0" allow="pedestrian delivery bicycle" speed="5.56" length="10.18" shape="342.78,645.21 343.48,647.92 343.15,650.19 341.78,652.04 339.37,653.45"/>
    </edge>
    <edge id=":3797046606_5" function="internal">
        <lane id=":3797046606_5_0" index="0" allow="pedestrian delivery bicycle" speed="3.65" length="4.67" shape="342.78,645.21 342.51,646.63 341.92,647.31 341.03,647.25 339.83,646.45"/>
    </edge>
    <edge id=":3797046606_6" function="internal">
        <lane id=":3797046606_6_0" index="0" allow="pedestrian delivery bicycle" speed="5.04" length="5.00" shape="338.15,650.50 339.34,649.80 340.01,648.89 340.17,647.77 339.83,646.45"/>
    </edge>
    <edge id=":3797046606_7" function="internal">
        <lane id=":3797046606_7_0" index="0" allow="pedestrian delivery bicycle" speed="5.56" length="10.16" shape="338.15,650.50 340.86,649.81 343.13,650.14 344.98,651.50 346.40,653.89"/>
    </edge>
    <edge id=":3797046606_8" function="internal">
        <lane id=":3797046606_8_0" index="0" allow="pedestrian delivery bicycle" speed="3.65" length="4.67" shape="338.15,650.50 339.57,650.78 340.24,651.37 340.18,652.26 339.37,653.45"/>
    </edge>
    <edge id=":3797046607_0" function="internal">
        <lane id=":3797046607_0_0" index="0" allow="pedestrian delivery bicycle" speed="5.56" length="9.40" shape="288.06,646.52 284.44,637.84"/>
    </edge>
    <edge id=":3797046607_1" function="internal">
        <lane id=":3797046607_1_0" index="0" allow="pedestrian delivery bicycle" speed="5.56" length="10.18" shape="288.06,646.52 287.36,643.81 287.69,641.54 289.06,639.69 291.47,638.27"/>
    </edge>
    <edge id=":3797046607_2" function="internal">
        <lane id=":3797046607_2_0" index="0" allow="pedestrian delivery bicycle" speed="3.65" length="4.67" shape="288.06,646.52 288.33,645.10 288.92,644.42 289.81,644.48 291.01,645.28"/>
    </edge>
    <edge id=":3797046607_3" function="internal">
        <lane id=":3797046607_3_0" index="0" allow="pedestrian delivery bicycle" speed="5.04" length="5.00" shape="292.69,641.23 291.51,641.93 290.83,642.84 290.67,643.96 291.01,645.28"/>
    </edge>
    <edge id=":3797046607_4" function="internal">
        <lane id=":3797046607_4_0" index="0" allow="pedestrian delivery bicycle" speed="5.56" length="10.16" shape="292.69,641.23 289.98,641.92 287.71,641.59 285.86,640.22 284.44,637.84"/>
    </edge>
    <edge id=":3797046607_5" function="internal">
        <lane id=":3797046607_5_0" index="0" allow="pedestrian delivery bicycle" speed="3.65" length="4.67" shape="292.69,641.23 291.27,640.95 290.60,640.36 290.66,639.47 291.47,638.27"/>
    </edge>
    <edge id=":3797046607_6" function="internal">
        <lane id=":3797046607_6_0" index="0" allow="pedestrian delivery bicycle" speed="5.05" length="5.01" shape="287.39,636.61 288.10,637.78 289.01,638.45 290.13,638.62 291.47,638.27"/>
    </edge>
    <edge id=":3797046607_7" function="internal">
        <lane id=":3797046607_7_0" index="0" allow="pedestrian delivery bicycle" speed="5.56" length="9.40" shape="287.39,636.61 291.01,645.28"/>
    </edge>
    <edge id=":3797046607_8" function="internal">
        <lane id=":3797046607_8_0" index="0" allow="pedestrian delivery bicycle" speed="3.65" length="4.67" shape="287.39,636.61 287.12,638.02 286.53,638.70 285.64,638.64 284.44,637.84"/>
    </edge>
    <edge id=":3797046608_0" function="internal">
        <lane id=":3797046608_0_0" index="0" allow="pedestrian delivery bicycle" speed="3.90" length="2.57" shape="337.58,641.04 337.22,640.43 336.75,640.09 336.18,640.00 335.49,640.17"/>
    </edge>
    <edge id=":3797046608_1" function="internal">
        <lane id=":3797046608_1_0" index="0" allow="pedestrian delivery bicycle" speed="5.56" length="7.72" shape="334.27,637.22 336.32,636.69 338.05,636.95 339.45,637.99 340.53,639.81"/>
    </edge>
    <edge id=":3797046610_0" function="internal">
        <lane id=":3797046610_0_0" index="0" allow="pedestrian delivery bicycle" speed="5.05" length="5.01" shape="282.15,632.34 281.45,631.16 280.54,630.48 279.42,630.31 278.09,630.64"/>
    </edge>
    <edge id=":3797046610_1" function="internal">
        <lane id=":3797046610_1_0" index="0" allow="pedestrian delivery bicycle" speed="5.56" length="10.18" shape="282.15,632.34 281.46,629.64 281.79,627.37 283.16,625.52 285.57,624.11"/>
    </edge>
    <edge id=":3797046610_2" function="internal">
        <lane id=":3797046610_2_0" index="0" allow="pedestrian delivery bicycle" speed="3.65" length="4.67" shape="282.15,632.34 282.43,630.93 283.02,630.25 283.91,630.31 285.11,631.11"/>
    </edge>
    <edge id=":3797046610_3" function="internal">
        <lane id=":3797046610_3_0" index="0" allow="pedestrian delivery bicycle" speed="5.04" length="5.00" shape="286.79,627.06 285.60,627.76 284.93,628.67 284.77,629.79 285.11,631.11"/>
    </edge>
    <edge id=":3797046610_4" function="internal">
        <lane id=":3797046610_4_0" index="0" allow="pedestrian delivery bicycle" speed="5.56" length="9.40" shape="286.79,627.06 278.09,630.64"/>
    </edge>
    <edge id=":3797046610_5" function="internal">
        <lane id=":3797046610_5_0" index="0" allow="pedestrian delivery bicycle" speed="3.65" length="4.67" shape="286.79,627.06 285.37,626.78 284.70,626.19 284.76,625.30 285.57,624.11"/>
    </edge>
    <edge id=":3797046610_6" function="internal">
        <lane id=":3797046610_6_0" index="0" allow="private pedestrian passenger taxi bus delivery motorcycle bicycle" speed="5.56" length="9.40" shape="276.88,627.69 285.57,624.11"/>
    </edge>
    <edge id=":3797046610_7" function="internal">
        <lane id=":3797046610_7_0" index="0" allow="pedestrian delivery bicycle" speed="5.56" length="10.16" shape="276.88,627.69 279.57,627.00 281.84,627.35 283.68,628.72 285.11,631.11"/>
    </edge>
    <edge id=":3797046610_8" function="internal">
        <lane id=":3797046610_8_0" index="0" allow="pedestrian delivery bicycle" speed="3.65" length="4.67" shape="276.88,627.69 278.29,627.97 278.97,628.56 278.90,629.45 278.09,630.64"/>
    </edge>
    <edge id=":4099935460_0" function="internal">
        <lane id=":4099935460_0_0" index="0" allow="private pedestrian passenger taxi bus delivery motorcycle bicycle" speed="5.56" length="0.30" shape="366.20,373.61 365.92,373.73"/>
    </edge>
    <edge id=":4099935460_1" function="internal">
        <lane id=":4099935460_1_0" index="0" allow="pedestrian delivery bicycle" speed="5.56" length="0.20" shape="364.63,370.81 364.81,370.72"/>
    </edge>
    <edge id=":4453294348_0" function="internal">
        <lane id=":4453294348_0_0" index="0" allow="pedestrian delivery bicycle" speed="5.56" length="4.90" shape="287.56,449.23 289.42,453.76"/>
    </edge>
    <edge id=":4608050520_0" function="internal">
        <lane id=":4608050520_0_0" index="0" allow="pedestrian delivery bicycle" speed="5.56" length="8.60" shape="358.76,339.72 352.28,334.06"/>
    </edge>
    <edge id=":4608050520_1" function="internal">
        <lane id=":4608050520_1_0" index="0" allow="pedestrian delivery bicycle" speed="3.65" length="4.67" shape="358.76,339.72 358.38,338.33 358.60,337.46 359.43,337.12 360.86,337.31"/>
    </edge>
    <edge id=":4608050520_2" function="internal">
        <lane id=":4608050520_2_0" index="0" allow="private pedestrian passenger taxi bus delivery motorcycle bicycle" speed="7.32" length="7.73" shape="359.56,330.11 359.13,332.38 359.20,334.34 359.78,335.98 360.86,337.31"/>
    </edge>
    <edge id=":4608050520_3" function="internal">
        <lane id=":4608050520_3_0" index="0" allow="pedestrian delivery bicycle" speed="6.17" length="10.73" shape="359.56,330.11 358.23,333.46 356.58,335.24 354.60,335.44 352.28,334.06"/>
    </edge>
    <edge id=":4608050520_4" function="internal">
        <lane id=":4608050520_4_0" index="0" allow="private pedestrian passenger taxi bus delivery motorcycle bicycle" speed="5.56" length="8.60" shape="354.38,331.65 360.86,337.31"/>
    </edge>
    <edge id=":4608050520_5" function="internal">
        <lane id=":4608050520_5_0" index="0" allow="pedestrian delivery bicycle" speed="3.65" length="4.67" shape="354.38,331.65 354.76,333.04 354.54,333.91 353.71,334.25 352.28,334.06"/>
    </edge>
    <edge id=":4663404519_0" function="internal">
        <lane id=":4663404519_0_0" index="0" allow="pedestrian delivery bicycle" speed="5.56" length="4.29" shape="332.80,551.65 333.32,552.81 333.61,553.64 333.73,554.51 333.75,555.78"/>
    </edge>
    <edge id=":6967951322_0" function="internal">
        <lane id=":6967951322_0_0" index="0" allow="pedestrian delivery bicycle" speed="5.56" length="5.00" shape="454.64,439.31 453.06,434.57"/>
    </edge>
    <edge id=":6967951322_1" function="internal">
        <lane id=":6967951322_1_0" index="0" allow="pedestrian delivery bicycle" speed="3.65" length="1.44" shape="454.64,439.31 455.02,437.92"/>
    </edge>
    <edge id=":6967951322_4" function="internal">
        <lane id=":6967951322_4_0" index="0" allow="pedestrian delivery bicycle" speed="3.65" length="3.23" shape="455.02,437.92 455.65,437.29 456.54,437.42 457.67,438.31"/>
    </edge>
    <edge id=":6967951322_2" function="internal">
        <lane id=":6967951322_2_0" index="0" allow="pedestrian delivery bicycle" speed="5.56" length="5.00" shape="456.10,433.56 457.67,438.31"/>
    </edge>
    <edge id=":6967951322_3" function="internal">
        <lane id=":6967951322_3_0" index="0" allow="pedestrian delivery bicycle" speed="3.65" length="1.44" shape="456.10,433.56 455.72,434.95"/>
    </edge>
    <edge id=":6967951322_5" function="internal">
        <lane id=":6967951322_5_0" index="0" allow="pedestrian delivery bicycle" speed="3.65" length="3.23" shape="455.72,434.95 455.08,435.58 454.20,435.45 453.06,434.57"/>
    </edge>
    <edge id=":6967951489_0" function="internal">
        <lane id=":6967951489_0_0" index="0" allow="pedestrian delivery bicycle" speed="3.65" length="4.67" shape="287.35,297.76 286.96,296.37 287.17,295.50 288.00,295.15 289.43,295.32"/>
    </edge>
    <edge id=":6967976775_0" function="internal">
        <lane id=":6967976775_0_0" index="0" allow="pedestrian delivery bicycle" speed="3.65" length="4.67" shape="250.11,501.94 251.53,502.18 252.22,502.75 252.18,503.64 251.41,504.86"/>
    </edge>
    <edge id=":6967976783_0" function="internal">
        <lane id=":6967976783_0_0" index="0" allow="pedestrian delivery bicycle" speed="5.56" length="5.00" shape="284.42,481.81 282.44,477.22"/>
    </edge>
    <edge id=":6967976784_0" function="internal">
        <lane id=":6967976784_0_0" index="0" allow="pedestrian delivery bicycle" speed="5.56" length="5.01" shape="228.99,546.19 226.99,541.60"/>
    </edge>
    <edge id=":6967976784_1" function="internal">
        <lane id=":6967976784_1_0" index="0" allow="pedestrian delivery bicycle" speed="3.65" length="4.67" shape="228.99,546.19 229.25,544.77 229.82,544.08 230.71,544.13 231.92,544.91"/>
    </edge>
    <edge id=":6967976784_2" function="internal">
        <lane id=":6967976784_2_0" index="0" allow="private pedestrian passenger taxi bus delivery motorcycle bicycle" speed="5.56" length="5.01" shape="229.92,540.32 231.92,544.91"/>
    </edge>
    <edge id=":6967976784_3" function="internal">
        <lane id=":6967976784_3_0" index="0" allow="pedestrian delivery bicycle" speed="3.65" length="4.67" shape="229.92,540.32 229.67,541.74 229.10,542.42 228.20,542.38 226.99,541.60"/>
    </edge>
    <edge id=":6967978989_0" function="internal">
        <lane id=":6967978989_0_0" index="0" allow="pedestrian delivery bicycle" speed="3.65" length="4.67" shape="291.41,551.62 292.83,551.90 293.50,552.49 293.43,553.38 292.63,554.58"/>
    </edge>
    <edge id=":6967978993_0" function="internal">
        <lane id=":6967978993_0_0" index="0" allow="pedestrian delivery bicycle" speed="5.56" length="5.16" shape="321.23,564.10 320.75,562.64 320.38,561.66 319.98,560.69 319.35,559.29"/>
    </edge>
    <edge id=":6967979003_0" function="internal">
        <lane id=":6967979003_0_0" index="0" allow="pedestrian delivery bicycle" speed="5.56" length="5.04" shape="320.27,520.50 321.50,525.39"/>
    </edge>
    <edge id=":9595449480_0" function="internal">
        <lane id=":9595449480_0_0" index="0" allow="pedestrian delivery bicycle" speed="5.56" length="6.24" shape="362.96,677.17 357.22,679.61"/>
    </edge>
    <edge id=":9595449480_1" function="internal">
        <lane id=":9595449480_1_0" index="0" allow="pedestrian delivery bicycle" speed="3.65" length="1.44" shape="362.96,677.17 361.55,676.90"/>
    </edge>
    <edge id=":9595449480_4" function="internal">